Version 4
SHEET 1 2276 2612
WIRE -1344 -1440 -1600 -1440
WIRE -1040 -1440 -1344 -1440
WIRE -720 -1440 -1040 -1440
WIRE -400 -1440 -720 -1440
WIRE -400 -1392 -400 -1440
WIRE -1040 -1360 -1040 -1440
WIRE -720 -1360 -720 -1440
WIRE -448 -1328 -464 -1328
WIRE -1088 -1296 -1104 -1296
WIRE -768 -1296 -784 -1296
WIRE -464 -1280 -464 -1328
WIRE -1104 -1264 -1104 -1296
WIRE -784 -1264 -784 -1296
WIRE -1040 -1056 -1040 -1280
WIRE -288 -1056 -1040 -1056
WIRE -160 -1056 -288 -1056
WIRE -1344 -944 -1344 -1440
WIRE -160 -832 -160 -1056
WIRE 272 -832 -160 -832
WIRE 448 -832 400 -832
WIRE 752 -816 640 -816
WIRE 1040 -816 944 -816
WIRE -720 -800 -720 -1280
WIRE -288 -800 -720 -800
WIRE 272 -800 -288 -800
WIRE 448 -800 400 -800
WIRE 752 -784 640 -784
WIRE 1136 -784 944 -784
WIRE 272 -768 -208 -768
WIRE 432 -768 400 -768
WIRE 752 -752 688 -752
WIRE 1024 -752 944 -752
WIRE 1056 -752 1024 -752
WIRE 432 -736 432 -768
WIRE 752 -720 688 -720
WIRE 1024 -720 944 -720
WIRE 1088 -720 1024 -720
WIRE -1600 -608 -1600 -1440
WIRE 1136 -608 1136 -784
WIRE 208 -592 176 -592
WIRE 224 -592 208 -592
WIRE 1088 -592 1088 -720
WIRE 320 -576 304 -576
WIRE 336 -576 320 -576
WIRE 480 -576 432 -576
WIRE 496 -576 480 -576
WIRE -400 -528 -400 -1312
WIRE -272 -528 -400 -528
WIRE -208 -528 -208 -768
WIRE -208 -528 -272 -528
WIRE 176 -512 176 -592
WIRE 304 -512 304 -576
WIRE 432 -512 432 -576
WIRE 1088 -512 1088 -544
WIRE 1136 -512 1136 -528
WIRE 1136 -512 1088 -512
WIRE 544 -496 512 -496
WIRE 576 -496 544 -496
WIRE 1136 -496 1136 -512
WIRE 800 -480 704 -480
WIRE 544 -464 512 -464
WIRE 576 -464 544 -464
WIRE 1056 -464 992 -464
WIRE 800 -448 704 -448
WIRE 544 -432 512 -432
WIRE 576 -432 544 -432
WIRE 1056 -432 992 -432
WIRE 128 -384 128 -448
WIRE 224 -384 128 -384
WIRE 256 -384 256 -448
WIRE 256 -384 224 -384
WIRE 384 -384 384 -448
WIRE 384 -384 256 -384
WIRE 176 -288 176 -464
WIRE 304 -288 304 -464
WIRE 304 -288 176 -288
WIRE 336 -288 304 -288
WIRE 432 -288 432 -464
WIRE 432 -288 336 -288
WIRE -400 -240 -400 -528
WIRE -720 -224 -720 -800
WIRE -1040 -208 -1040 -1056
WIRE -448 -176 -464 -176
WIRE -768 -160 -784 -160
WIRE -1088 -144 -1120 -144
WIRE -464 -128 -464 -176
WIRE -784 -112 -784 -160
WIRE -1120 -96 -1120 -144
WIRE -1600 0 -1600 -528
WIRE -1344 0 -1344 -880
WIRE -1344 0 -1600 0
WIRE -1040 0 -1040 -128
WIRE -1040 0 -1344 0
WIRE -720 0 -720 -144
WIRE -720 0 -1040 0
WIRE -400 0 -400 -160
WIRE -400 0 -720 0
WIRE 1120 48 1056 48
WIRE 1120 80 1056 80
WIRE 656 112 544 112
WIRE 816 112 736 112
WIRE 1120 112 1056 112
WIRE 416 128 256 128
WIRE 656 144 544 144
WIRE 816 144 736 144
WIRE 1120 144 1056 144
WIRE 416 160 256 160
WIRE 656 176 544 176
WIRE 816 176 736 176
WIRE 1120 176 1056 176
WIRE 1120 208 1056 208
WIRE -832 240 -896 240
WIRE 1120 240 1056 240
WIRE -1056 256 -1088 256
WIRE -1184 272 -1280 272
WIRE -688 272 -896 272
WIRE -1280 288 -1280 272
WIRE -1280 288 -1312 288
WIRE -1264 320 -1312 320
WIRE -1184 320 -1184 272
WIRE -688 320 -688 272
WIRE -688 320 -1184 320
WIRE -1264 416 -1264 320
WIRE -816 464 -896 464
WIRE -1056 480 -1088 480
WIRE -688 496 -896 496
WIRE -688 512 -688 496
FLAG 688 -752 Id
FLAG 688 -720 Iq
FLAG -1088 256 Iq
FLAG 1024 -752 theta
FLAG 1024 -720 wm
FLAG -816 464 VD
FLAG -832 240 VQ
FLAG -688 592 0
FLAG -1088 480 Id
FLAG 1136 -496 0
FLAG -1264 496 0
FLAG -1472 304 wm
FLAG 64 176 VQ
FLAG 64 144 VD
FLAG 256 192 theta
FLAG 432 -656 0
FLAG 640 -848 theta
FLAG 1056 -464 Id
FLAG 1056 -432 Iq
FLAG 800 -416 theta
FLAG 480 -576 IA
FLAG 320 -576 IB
FLAG 208 -592 IC
FLAG 544 -496 IA
FLAG 544 -464 IB
FLAG 544 -432 IC
FLAG 336 -288 0
FLAG 128 -528 C
FLAG 256 -528 B
FLAG 384 -528 A
FLAG 1120 48 S1
FLAG 1120 80 S2
FLAG 1120 112 S3
FLAG 1120 144 S4
FLAG 1120 176 S5
FLAG 1120 208 S6
FLAG -288 -1056 A
FLAG -288 -800 B
FLAG -272 -528 C
FLAG -1104 -1264 0
FLAG -784 -1264 0
FLAG -464 -1280 0
FLAG -464 -128 0
FLAG -784 -112 0
FLAG -1120 -96 0
FLAG -1088 -1344 S1
FLAG -1088 -192 S2
FLAG -768 -1344 S3
FLAG -768 -208 S4
FLAG -448 -1376 S5
FLAG -448 -224 S6
FLAG 224 -304 0
SYMBOL AutoGenerated\\PMSM_DQ 848 -768 R0
WINDOW 3 1 104 Top 2
SYMATTR InstName U1
SYMBOL AutoGenerated\\PI -976 256 R0
SYMATTR InstName U2
SYMATTR SpiceLine Kp=10, Ki=5, Kaw=100, limmax=96/sqrt(3)
SYMBOL AutoGenerated\\PI -976 480 R0
SYMATTR InstName U3
SYMATTR SpiceLine Kp=10, Ki=5, Kaw=100, limmax=96/sqrt(3)
SYMBOL voltage -688 496 R0
WINDOW 123 0 0 Left 0
WINDOW 39 0 0 Left 0
SYMATTR InstName V3
SYMATTR Value 0
SYMBOL e 1136 -624 R0
SYMATTR InstName myE1
SYMATTR Value 0.084
SYMBOL AutoGenerated\\PI -1392 304 R0
SYMATTR InstName U4
SYMATTR SpiceLine Kp=7, Ki=0.5, Kaw=60, limmax=177
SYMBOL voltage -1264 400 R0
WINDOW 123 0 0 Left 0
WINDOW 39 0 0 Left 0
SYMATTR InstName V2
SYMATTR Value 100
SYMBOL AutoGenerated\\clarcke 336 -800 R0
SYMATTR InstName U5
SYMBOL AutoGenerated\\Park 544 -816 R0
SYMATTR InstName U6
SYMBOL AutoGenerated\\invclarcke 480 144 M0
SYMATTR InstName U7
SYMBOL AutoGenerated\\invpark 160 160 R0
SYMATTR InstName U8
SYMBOL res 416 -752 R0
SYMATTR InstName R2
SYMATTR Value 1e12
SYMBOL AutoGenerated\\invpark 896 -448 M0
SYMATTR InstName U9
SYMBOL AutoGenerated\\invclarcke 640 -464 R0
SYMATTR InstName U10
SYMBOL g 384 -544 M0
SYMATTR InstName G1
SYMATTR Value -1
SYMBOL g 256 -544 M0
SYMATTR InstName G2
SYMATTR Value -1
SYMBOL g 128 -544 M0
SYMATTR InstName G3
SYMATTR Value -1
SYMBOL AutoGenerated\\SVPWM_REF 688 144 R0
WINDOW 0 0 -72 Bottom 2
WINDOW 3 0 72 Top 2
SYMATTR InstName U11
SYMBOL sw -1040 -1264 M180
SYMATTR InstName S1
SYMATTR Value SW1
SYMBOL sw -1040 -112 M180
SYMATTR InstName S2
SYMATTR Value SW2
SYMBOL sw -720 -1264 M180
SYMATTR InstName S3
SYMATTR Value SW3
SYMBOL sw -720 -128 M180
SYMATTR InstName S4
SYMATTR Value SW4
SYMBOL sw -400 -1296 M180
SYMATTR InstName S5
SYMATTR Value SW5
SYMBOL sw -400 -144 M180
SYMATTR InstName S6
SYMATTR Value SW6
SYMBOL cap -1360 -944 R0
SYMATTR InstName C1
SYMATTR Value 3m
SYMBOL voltage -1600 -624 R0
WINDOW 123 0 0 Left 0
WINDOW 39 0 0 Left 0
SYMATTR InstName V1
SYMATTR Value 96
SYMBOL res 208 -400 R0
SYMATTR InstName R1
SYMATTR Value 1e12
SYMBOL AutoGenerated\\SWTCHGen 928 144 R0
SYMATTR InstName U13
TEXT -2112 1208 Left 2 !.tran 1s
TEXT -2112 1048 Left 2 !.model SW1 SW(Ron=.1 Roff=1e9 Vt=0 Vh=0 Lser=0 Vser=0)\n.model SW2 SW(Ron=.1 Roff=1e9 Vt=0 Vh=0 Lser=0 Vser=0)\n.model SW3 SW(Ron=.1 Roff=1e9 Vt=0 Vh=0 Lser=0 Vser=0)\n.model SW4 SW(Ron=.1 Roff=1e9 Vt=0 Vh=0 Lser=0 Vser=0)\n.model SW5 SW(Ron=.1 Roff=1e9 Vt=0 Vh=0 Lser=0 Vser=0)\n.model SW6 SW(Ron=.1 Roff=1e9 Vt=0 Vh=0 Lser=0 Vser=0)
TEXT 352 -1144 Left 5 ;PMSM model
TEXT -1264 -1664 Left 5 ;Inverter ideal model
TEXT 112 536 Left 5 ;FOC and switching Pattern generator
TEXT -1416 704 Left 5 ;Speed and current controller
TEXT -2104 880 Left 3 ;Notes : \nCurrent has been taken as Id&Iq for simplicity \nInverter is ideal as it's an elementary design\nNon ideality and current sensing method will be added in the upcoming more realistic design
RECTANGLE Normal 1264 -160 -128 -1264
RECTANGLE Normal -224 64 -1824 -1824
RECTANGLE Normal -192 704 1328 -112
RECTANGLE Normal -272 832 -1824 96
