.subckt invpark parkD parkQ alpha beta theta

Ralpha alpha  0 1e15
Rbeta beta  0 1e15
Rtheta theta  0 1e15
RparkD parkD  0 1e15
RparkQ parkQ 0 1e15
*Calculting inverse Park equations


Bsin thetasin 0 V = sin( V(theta) )
Bcos thetacos 0 V = cos( V(theta) )
Balpha alpha 0 V =V(parkD) *V(thetacos) - V(parkQ)*V(thetasin)
Bbeta  beta  0 V = V(parkD)*V(thetasin) + V(parkQ)*V(thetacos)
.ends invpark
